! XTB2 opt numfreq
* XYZ 0 1
O 2.3768 0.3908 2.2157
P 3.0685 0.2444 0.9068
O 4.0985 1.4340 0.6328
O 4.0382 -1.0118 0.7607
O 2.1672 0.2161 -0.4094
C 1.0873 -0.7115 -0.4469
C -0.1846 -0.0915 0.1303
O -0.6056 1.0360 -0.6702
C -2.0265 0.9672 -0.8163
O -2.3028 0.6242 -2.1610
C -2.5410 -0.1295 0.1225
O -2.7568 0.3503 1.4610
C -1.3520 -1.0737 0.1365
O -1.3500 -1.9220 1.2768
H 3.7375 2.2702 0.9818
H 4.6715 -0.8648 0.0361
H 1.3626 -1.6253 0.0909
H 0.9371 -0.9699 -1.5005
H 0.0135 0.2911 1.1375
H -2.4619 1.9457 -0.5907
H -1.9454 1.3651 -2.6806
H -3.4581 -0.6194 -0.2179
H -3.5232 0.9508 1.4296
H -1.3486 -1.6934 -0.7679
H -1.7020 -1.3732 2.0090
*
