! XTB2 opt numfreq
* XYZ 0 1
O 2.3214 0.8821 -0.4672
C 1.9476 -0.0777 0.2168
C 2.6457 -0.4397 1.5201
O 3.4917 0.6082 1.9705
C 0.8208 -1.0046 -0.2271
O 1.4219 -2.1789 -0.7802
C -0.0898 -0.3499 -1.2821
O 0.6639 -0.0972 -2.4801
C -0.7895 0.9275 -0.8036
O -1.3971 0.7443 0.4638
P -2.9279 0.2839 0.4818
O -3.2603 -0.9244 -0.3189
O -3.7607 1.5985 0.1486
O -3.2698 0.0898 2.0270
H 1.8979 -0.6259 2.2951
H 3.2493 -1.3378 1.3646
H 3.8723 1.0200 1.1701
H 0.2364 -1.2986 0.6506
H 1.5797 -1.9806 -1.7271
H -0.8490 -1.0889 -1.5621
H 1.3522 0.5643 -2.2514
H -1.5292 1.2504 -1.5463
H -0.0808 1.7577 -0.7204
H -3.6082 2.2917 0.8159
H -3.9384 -0.6142 2.1320
*
