! XTB2 opt numfreq
* XYZ 0 1
O -2.4717 1.5459 1.2627
C -2.7057 0.4516 0.7551
C -1.7120 -0.3269 -0.0835
O -1.7638 -1.7031 0.2930
C -0.2985 0.2124 0.1120
O 0.5888 -0.5681 -0.6798
P 2.1268 -0.1446 -0.7717
O 3.0263 -1.0463 -1.5414
O 2.1827 1.3943 -1.1752
O 2.6081 -0.0590 0.7500
H -3.7079 -0.0034 0.8375
H -2.0156 -0.2648 -1.1334
H -0.9646 -2.1150 -0.0903
H -0.2391 1.2632 -0.1889
H 0.0052 0.1230 1.1607
H 2.0433 1.9766 -0.4077
H 3.2976 -0.7360 0.9009
*
