! XTB2 opt numfreq
* XYZ 0 1
O -1.5451 -0.4581 -2.4110
C -1.5400 -0.5955 -1.1804
C -2.2848 0.3743 -0.2721
O -3.2280 1.1429 -1.0094
C -0.8436 -1.7966 -0.5368
O -0.2897 -2.6420 -1.5543
C 0.2638 -1.4231 0.4572
O -0.3022 -0.7602 1.5919
C 1.4117 -0.6148 -0.1691
O 0.9998 0.7184 -0.4350
P 1.5458 1.8939 0.5005
O 0.9759 3.2478 0.2754
O 3.1306 1.8422 0.3411
O 1.3328 1.3619 1.9952
H -2.8337 -0.1843 0.4900
H -1.5796 1.0603 0.2004
H -2.8081 1.3342 -1.8713
H -1.6256 -2.3732 -0.0294
H -0.7354 -2.3899 -2.3905
H 0.7027 -2.3590 0.8253
H 0.3988 -0.2122 2.0072
H 1.7527 -1.0649 -1.1064
H 2.2670 -0.6105 0.5159
H 3.4228 2.3985 -0.4057
H 1.4113 2.1102 2.6196
*
