! XTB2 opt numfreq
* XYZ 0 1
O -4.1997 1.3581 0.0482
C -3.0088 1.6683 0.0626
C -1.9443 0.8341 -0.6324
O -2.4976 -0.4060 -1.0646
C -0.7770 0.6033 0.3294
O -0.1226 1.8552 0.5937
C 0.2499 -0.3811 -0.2375
O 1.3390 -0.4622 0.6821
P 2.4370 -1.5865 0.3813
O 1.9481 -2.9754 0.1733
O 3.5178 -1.3966 1.5358
O 3.2493 -1.0354 -0.8771
H -2.6663 2.6054 0.5336
H -1.6197 1.3996 -1.5128
H -3.4633 -0.2604 -1.1516
H -1.1376 0.2256 1.2942
H 0.7047 1.6213 1.0599
H 0.6431 -0.0197 -1.1936
H -0.1892 -1.3741 -0.3748
H 3.8726 -0.4909 1.5468
H 3.6644 -1.7827 -1.3499
*
