! XTB2 opt numfreq
* XYZ 0 1
O 3.7543 -1.0598 -0.1013
C 3.6171 -0.0244 0.5248
O 4.6977 0.6308 1.0155
C 2.3230 0.7067 0.8657
O 2.3953 1.2049 2.2202
C 1.1036 -0.2277 0.7845
O 0.0161 0.3949 1.4943
C 0.6703 -0.5101 -0.6656
O 0.3307 0.7240 -1.3191
C -0.4887 -1.5298 -0.7902
O -0.6149 -1.8701 -2.1862
C -1.8734 -1.0752 -0.3106
O -2.3224 0.0353 -1.0791
P -3.4047 0.9973 -0.4052
O -4.4910 0.3646 0.3892
O -3.9243 1.8706 -1.6350
O -2.5206 2.0624 0.3866
H 5.4592 0.0806 0.7298
H 2.2158 1.5757 0.2091
H 3.2747 1.6306 2.2867
H 1.3160 -1.1693 1.3041
H 0.4411 0.8665 2.2438
H 1.5171 -0.9127 -1.2317
H -0.4079 1.1105 -0.8019
H -0.2138 -2.4517 -0.2655
H -0.7632 -1.0138 -2.6368
H -1.8820 -0.8426 0.7570
H -2.5946 -1.8828 -0.4794
H -4.5462 1.3639 -2.1876
H -3.0843 2.6809 0.8839
*
