! XTB2 opt numfreq
* XYZ 0 1
O -3.0471 0.6683 -1.9405
P -3.5053 -0.0086 -0.6976
O -4.2932 -1.3796 -0.8870
O -4.5953 0.8537 0.0900
O -2.4024 -0.3437 0.4093
C -1.4030 0.6280 0.6489
C -0.1636 0.4294 -0.2393
O 0.7924 1.4748 0.0403
C 1.7736 1.1006 0.9918
O 2.5834 2.2349 1.2686
C 2.6808 -0.0256 0.4499
O 3.8038 0.5026 -0.2818
C 1.9086 -0.9534 -0.4901
O 2.4505 -2.2832 -0.4303
C 0.4292 -0.9929 -0.1115
O -0.2587 -1.9174 -0.9567
H -4.5265 -1.7690 -0.0266
H -5.1528 1.3336 -0.5514
H -1.1215 0.5610 1.7056
H -1.8085 1.6384 0.5147
H -0.4748 0.5750 -1.2802
H 1.2851 0.7894 1.9226
H 1.9547 2.9244 1.5444
H 3.1176 -0.5722 1.2933
H 3.9081 1.4198 0.0522
H 2.0128 -0.6376 -1.5362
H 3.3870 -2.1914 -0.6968
H 0.3256 -1.3717 0.9130
H 0.3396 -2.6876 -1.0410
*
