! XTB2 opt numfreq
* XYZ 0 1
O -2.1313 3.0967 -0.3981
C -1.8113 1.9602 -0.0570
O -0.9785 1.7831 0.9990
C -0.1654 0.6015 1.1750
C 1.2275 0.8606 0.5883
O 2.1001 -0.2088 0.9146
P 2.9448 -0.9308 -0.2324
O 3.9243 -1.9563 0.2139
O 3.6007 0.2439 -1.0827
O 1.8508 -1.5283 -1.2387
C -0.8419 -0.6744 0.6638
O -1.9144 -1.0272 1.5576
C -1.4349 -0.4534 -0.7301
O -0.4358 -0.2167 -1.7172
C -2.4228 0.7130 -0.6937
O -3.6288 0.3315 -0.0252
H -0.0484 0.4932 2.2610
H 1.1929 1.0505 -0.4876
H 1.6416 1.7735 1.0321
H 4.4811 0.4859 -0.7380
H 2.2939 -2.1657 -1.8351
H -0.1403 -1.5145 0.6539
H -1.5129 -1.3186 2.3987
H -1.9802 -1.3582 -1.0262
H 0.2407 -0.9255 -1.6589
H -2.6878 0.9840 -1.7226
H -3.3638 -0.0991 0.8150
*
