! XTB2 opt numfreq
* XYZ 1 1
N -11.3194 3.3883 -3.2117
C -11.2583 2.3325 -2.3200
N -12.3660 1.5714 -2.1376
C -12.3085 0.5582 -1.2379
N -11.2680 0.1675 -0.4775
C -10.1943 0.9485 -0.6986
C -10.1135 2.0347 -1.5657
N -8.8614 2.6080 -1.5080
C -8.1974 1.8876 -0.6190
N -8.9570 0.8760 -0.1140
C -8.5633 -0.1263 0.8731
O -7.2597 0.2391 1.3885
C -6.3809 -0.9006 1.3617
C -5.3341 -0.6851 0.2732
O -4.5498 0.4774 0.4966
P -3.5540 0.5715 1.7336
O -4.1748 0.7770 3.0784
O -2.7590 -0.8201 1.7220
O -2.4376 1.6256 1.3467
P -1.6708 1.6880 -0.0389
O -2.4740 1.5868 -1.2931
O -0.8818 3.0844 0.0662
O -0.4645 0.6415 0.1026
C -0.5195 -0.5656 -0.6448
C 0.6773 -1.4507 -0.2786
O 1.8814 -0.7466 -0.6664
C 2.6100 -0.4297 0.5386
N 3.2857 0.8853 0.3513
C 3.0950 1.9580 1.1514
C 3.8441 3.1117 0.9780
C 4.8272 3.1523 -0.0010
C 5.0492 2.0467 -0.8315
C 6.1467 2.0414 -1.9040
N 5.5972 1.5814 -3.1734
O 6.4740 3.4079 -2.1794
C 7.5269 1.2888 -1.5722
O 8.2071 1.1453 -2.8690
C 7.2981 -0.1388 -1.0904
O 6.2621 -0.7684 -1.3049
O 8.3397 -0.7734 -0.5049
C 9.6305 -0.1404 -0.3283
C 10.4416 -1.0199 0.6376
O 10.5757 -2.3172 0.0576
P 11.1296 -3.4867 1.0028
O 10.6153 -3.5097 2.3985
O 12.7125 -3.3432 0.9244
O 10.8957 -4.8038 0.1364
C 9.4200 1.2517 0.2323
O 10.6641 1.9365 0.3521
C 8.4883 2.0903 -0.6666
O 7.8167 3.0072 0.2108
C 4.1893 0.9535 -0.6595
C 1.6414 -0.5509 1.7074
O 2.3332 -0.7482 2.9388
C 0.8048 -1.7298 1.2259
O 1.5624 -2.9123 1.4789
C -7.2550 -2.1127 1.0814
O -7.6779 -2.6985 2.3144
C -8.4310 -1.5365 0.2944
O -9.6007 -2.3054 0.4794
P -9.7460 -3.7123 -0.2647
O -10.1551 -4.8699 0.5562
O -8.4231 -3.9230 -1.1396
O -10.8342 -3.3782 -1.3911
H -12.2709 3.6518 -3.4214
H -10.7079 4.1471 -2.9338
H -13.2150 -0.0299 -1.1262
H -7.1763 2.0689 -0.3207
H -9.2787 -0.0601 1.7039
H -5.9153 -0.9553 2.3555
H -4.6771 -1.5500 0.1448
H -5.8451 -0.5149 -0.6755
H -2.8156 -1.2145 2.6203
H -1.3952 3.7929 -0.3646
H -0.4799 -0.3117 -1.7107
H -1.4570 -1.0906 -0.4435
H 0.6306 -2.3835 -0.8531
H 3.4345 -1.1510 0.6584
H 2.3514 1.9041 1.9385
H 3.6746 3.9913 1.6065
H 5.3916 4.0719 -0.1170
H 6.3771 1.6390 -3.8436
H 5.4290 0.5776 -3.1529
H 6.0870 3.5285 -3.0685
H 8.8159 0.3760 -2.8490
H 10.1405 -0.1382 -1.2923
H 11.4370 -0.6146 0.8191
H 9.8968 -1.1211 1.5814
H 13.1160 -3.7878 1.6963
H 11.1916 -4.6924 -0.7788
H 8.9893 1.1769 1.2425
H 10.4724 2.7835 0.7902
H 9.1215 2.7260 -1.3142
H 7.7303 3.8512 -0.2988
H 4.1960 0.0885 -1.3334
H 1.0009 0.3212 1.8263
H 1.8214 -1.3845 3.4797
H -0.1470 -1.8357 1.7408
H 1.3396 -3.6267 0.8381
H -6.7181 -2.8948 0.5407
H -8.1914 -2.0441 2.8186
H -8.1948 -1.4813 -0.7772
H -8.4821 -4.7668 -1.6296
H -11.7297 -3.4648 -1.0384
*
