! XTB2 opt numfreq
* XYZ 0 1
N -13.5033 -4.1000 0.4074
C -13.0502 -2.8266 0.0993
N -13.9140 -1.7984 0.2444
C -13.4851 -0.5537 -0.0472
N -12.2551 -0.1647 -0.4362
C -11.4329 -1.2179 -0.5600
C -11.7370 -2.5481 -0.3218
N -10.6306 -3.3447 -0.5343
C -9.6840 -2.5143 -0.9268
N -10.1109 -1.2127 -0.9248
C -9.3363 -0.0336 -1.2780
O -7.9377 -0.4190 -1.3943
C -7.1936 0.2065 -0.3219
C -6.1853 -0.7681 0.2860
O -5.1225 -0.9824 -0.6310
P -3.7111 -1.4398 -0.0085
O -3.7960 -2.5885 0.9375
O -2.8119 -1.6992 -1.3050
O -3.1260 -0.0847 0.5893
P -1.6400 -0.0557 1.1457
O -0.6910 -0.9937 0.4644
O -1.8401 -0.3131 2.7115
O -1.2151 1.4917 1.1368
C 0.0647 1.8183 1.6476
C 0.8796 2.6124 0.6330
O 2.0827 3.0911 1.2657
C 3.2177 2.5298 0.5544
N 3.7349 1.3400 1.2810
C 3.6187 1.2583 2.6675
C 4.1399 0.2665 3.3991
C 4.9104 -0.8499 2.7485
C 5.1793 -0.6303 1.2645
C 6.0868 -1.6047 0.4991
N 5.8582 -2.9587 0.9997
O 5.6242 -1.6693 -0.8370
C 7.6382 -1.2443 0.5385
O 8.0932 -1.1768 1.9280
C 7.9964 0.1159 -0.0991
O 7.2162 0.9178 -0.5962
O 9.3156 0.4572 0.0086
C 10.3136 -0.5717 0.2188
C 11.6635 -0.0018 -0.2516
O 11.6361 0.2288 -1.6542
P 12.8739 0.9766 -2.3276
O 12.8461 1.0846 -3.8118
O 14.1787 0.2341 -1.7864
O 12.9542 2.3998 -1.6141
C 9.9138 -1.8281 -0.5585
O 10.8523 -2.8947 -0.3979
C 8.5055 -2.3256 -0.1680
O 7.8910 -2.8631 -1.3524
C 4.5662 0.4068 0.6567
C 2.6906 2.2604 -0.8691
O 2.5833 3.4756 -1.6463
C 1.2859 1.7623 -0.5776
O 0.4231 1.9529 -1.6979
C -8.2399 0.6629 0.6890
O -7.7577 1.6867 1.5501
C -9.3739 1.0881 -0.2294
O -9.0531 2.3496 -0.8249
P -10.2681 3.1467 -1.4981
O -11.0417 2.4338 -2.5532
O -11.0845 3.7459 -0.2635
O -9.5726 4.4760 -2.0422
H -12.7638 -4.7712 0.5867
H -14.3107 -4.0890 1.0185
H -14.2273 0.2346 0.0560
H -8.6815 -2.8033 -1.2242
H -9.6693 0.2759 -2.2716
H -6.6553 1.0606 -0.7543
H -6.6459 -1.7395 0.4869
H -5.7874 -0.3642 1.2226
H -1.9085 -2.0026 -1.0674
H -2.4546 0.3247 3.1209
H 0.6171 0.9210 1.9571
H -0.0757 2.4164 2.5560
H 0.3066 3.4922 0.3192
H 4.0036 3.2979 0.5380
H 3.0672 2.0647 3.1465
H 3.9964 0.2481 4.4729
H 5.8566 -0.9550 3.2853
H 4.3414 -1.7761 2.8950
H 6.1127 -3.0146 1.9858
H 4.8548 -3.1461 0.9146
H 6.1311 -2.4116 -1.2289
H 7.6558 -0.3942 2.3191
H 10.4031 -0.7794 1.2914
H 12.4721 -0.7029 -0.0138
H 11.8464 0.9583 0.2509
H 14.9065 0.3350 -2.4222
H 12.4160 3.0507 -2.1039
H 9.8974 -1.5884 -1.6276
H 10.9089 -3.1208 0.5497
H 8.6031 -3.1772 0.5174
H 8.5156 -3.5214 -1.7148
H 4.7393 0.5700 -0.4021
H 3.2627 1.5636 -1.4763
H 3.4855 3.7990 -1.7982
H 1.2973 0.6964 -0.3306
H 0.7463 2.7770 -2.1251
H -8.5656 -0.1760 1.3155
H -8.5203 2.1417 1.9500
H -10.2996 1.2009 0.3343
H -10.6547 4.5587 0.0554
H -9.2564 4.3475 -2.9550
*
