! XTB2 opt numfreq
* XYZ 0 1
O 2.9777 -0.4624 -2.1009
C 2.5655 0.1315 -1.1075
O 3.3753 1.0037 -0.4442
C 3.0262 1.3965 0.9059
C 4.2952 1.9419 1.5739
O 4.7026 3.1173 0.8855
P 6.1560 3.1596 0.2113
O 6.5119 4.4041 -0.5281
O 6.2458 1.8370 -0.6799
O 7.1646 2.8336 1.4090
C 2.4938 0.1772 1.6578
O 2.1453 0.4677 3.0131
C 1.2853 -0.4631 0.9412
O 1.3775 -1.8874 1.0992
C 1.1530 -0.0310 -0.5344
O 0.5345 1.2830 -0.5494
C 0.2771 -0.9606 -1.4508
O 0.9305 -2.1530 -1.8700
O -0.0035 -0.2219 -2.6427
C -1.0785 -1.3774 -0.7568
O -0.9132 -2.5683 0.0341
C -2.2315 -1.6558 -1.7497
O -1.7542 -2.4401 -2.8680
C -3.4327 -2.4198 -1.1522
O -4.4597 -2.5134 -2.1647
C -4.0556 -1.8096 0.1142
O -5.0934 -2.7005 0.5689
C -4.6797 -0.4287 -0.1185
O -5.0016 0.1557 1.1401
P -4.3930 1.6036 1.4481
O -2.9062 1.7299 1.3980
O -5.1954 2.5567 0.4490
O -5.0577 1.9694 2.8493
H 2.2953 2.2122 0.8596
H 4.1061 2.2174 2.6173
H 5.0917 1.1871 1.5569
H 5.7949 1.9499 -1.5408
H 8.0787 3.0634 1.1514
H 3.2946 -0.5734 1.7095
H 1.4858 1.1865 3.0192
H 0.3693 -0.1660 1.4704
H 1.4473 -2.0558 2.0624
H 0.2923 1.4415 -1.4892
H 1.8016 -1.8843 -2.2310
H -0.4532 -0.8668 -3.2283
H -1.4130 -0.5791 -0.0841
H 0.0494 -2.6580 0.2429
H -2.5742 -0.7138 -2.1921
H -1.1776 -3.1396 -2.4850
H -3.1513 -3.4601 -0.9507
H -3.9918 -2.8083 -2.9754
H -3.3226 -1.7590 0.9261
H -5.6387 -2.8834 -0.2210
H -5.6140 -0.5072 -0.6847
H -3.9997 0.2281 -0.6670
H -5.0085 3.5056 0.5925
H -4.7243 1.3876 3.5604
*
