! XTB2 opt numfreq
* XYZ 0 1
O -0.7385 -2.0892 -1.2411
C -0.6858 -1.1507 -0.4332
C -1.8816 -0.8424 0.4431
C -2.9329 -0.0978 -0.3870
O -2.3701 1.1768 -0.7574
C -4.2463 0.1882 0.3678
O -3.9165 0.9321 1.5516
C -5.0457 -1.0685 0.7308
O -6.2131 -0.8325 1.4994
P -7.2719 0.3008 1.1224
O -8.6110 0.2095 1.7667
O -7.3360 0.3000 -0.4722
O -6.5208 1.6853 1.4627
C 0.5697 -0.2262 -0.3502
O 0.1499 1.0921 -0.0756
O 1.1985 -0.1968 -1.6184
C 1.5341 -0.7253 0.7746
O 0.7506 -1.1147 1.9360
C 2.4265 0.4331 1.2279
O 2.1494 1.1081 2.2218
O 3.5260 0.7080 0.4916
C 4.3311 -0.3608 -0.0617
C 5.1688 0.2301 -1.2003
O 6.0423 1.2212 -0.6894
P 5.5566 2.7491 -0.7565
O 4.2090 3.0503 -1.3263
O 6.7890 3.4979 -1.4510
O 5.7239 3.2526 0.7590
C 3.5337 -1.5683 -0.5458
O 4.4033 -2.7041 -0.6856
C 2.4519 -1.9129 0.4706
O 1.7515 -3.0818 0.0010
H -1.5611 -0.2564 1.3095
H -2.2647 -1.8003 0.8133
H -3.1469 -0.6330 -1.3212
H -2.5486 1.7691 0.0107
H -4.8442 0.8621 -0.2610
H -4.7478 1.3843 1.8165
H -4.4323 -1.7456 1.3370
H -5.3390 -1.6104 -0.1788
H -8.1057 -0.2245 -0.8034
H -7.1657 2.4205 1.4723
H -0.5048 1.3239 -0.7716
H 0.7696 -0.8800 -2.1543
H 0.6366 -0.2999 2.4622
H 5.0238 -0.6656 0.7391
H 4.5317 0.6571 -1.9902
H 5.7745 -0.5477 -1.6723
H 7.5715 3.5000 -0.8868
H 4.9275 2.9915 1.2683
H 3.1112 -1.3999 -1.5410
H 3.8064 -3.4681 -0.8389
H 2.9452 -2.2450 1.4023
H 1.0674 -3.2952 0.6696
*
