! XTB2 opt numfreq
* XYZ 0 1
O -3.8571 -0.0970 -0.4912
C -2.6649 -0.0745 -0.8151
C -1.5420 0.0443 0.2212
O -2.0016 -0.5939 1.4385
C -1.3220 1.5374 0.5295
O -2.5208 2.1277 1.0433
P -3.4848 2.8827 0.0071
O -3.0761 2.8368 -1.4244
O -4.9164 2.2368 0.2972
O -3.6184 4.3601 0.5924
C -0.2321 -0.6376 -0.2971
O -0.0054 -0.2178 -1.6391
O 0.8611 -0.1247 0.4756
C 2.1065 -0.8462 0.4598
C 2.7870 -0.8281 -0.9250
O 2.7039 0.4367 -1.5647
P 3.4822 1.6799 -0.9205
O 4.7544 1.3985 -0.2201
O 2.3723 2.4229 -0.0558
O 3.6015 2.6774 -2.1570
C 1.9300 -2.2842 0.9857
O 2.4418 -2.3808 2.3322
C 0.4547 -2.6991 1.0089
O 0.3897 -4.1353 1.0802
C -0.2870 -2.1967 -0.2327
O -1.6103 -2.7462 -0.2276
H -2.3768 -0.0351 -1.8805
H -2.7491 -0.0402 1.7513
H -0.5922 1.6488 1.3282
H -0.9454 2.0954 -0.3344
H -4.9464 1.3303 -0.0915
H -4.0008 4.9654 -0.0689
H 0.6231 0.5382 -1.5754
H 2.7568 -0.2881 1.1471
H 3.8383 -1.1211 -0.8409
H 2.3154 -1.5491 -1.5951
H 2.7105 3.2625 0.3037
H 4.3179 2.4174 -2.7684
H 2.5333 -2.9934 0.3941
H 2.1808 -3.2720 2.6476
H -0.0360 -2.3413 1.9195
H -0.4912 -4.3761 0.7251
H 0.1829 -2.6229 -1.1231
H -2.0670 -2.3977 0.5605
*
