! XTB2 opt numfreq
* XYZ 0 1
O 0.8927 -1.5985 1.1729
C 1.0583 -1.2399 0.0138
O 2.0934 -0.4094 -0.2663
C 2.0542 0.4388 -1.4330
C 2.8739 1.6898 -1.0809
O 2.1815 2.4257 -0.0777
P 2.8244 2.5739 1.3842
O 1.9653 3.2198 2.4122
O 3.3091 1.1089 1.7782
O 4.2091 3.3245 1.1148
C 0.5991 0.7788 -1.7671
O 0.4707 1.7026 -2.8523
C -0.1302 -0.5172 -2.1397
O -1.5299 -0.2261 -2.2245
C 0.2136 -1.6921 -1.1917
O 1.1118 -2.5571 -1.9566
C -1.0031 -2.5699 -0.7920
O -0.5070 -3.9218 -0.5495
C -1.8519 -2.1749 0.4360
O -2.9249 -3.1476 0.5293
C -2.4633 -0.7809 0.4072
O -3.0803 -0.5350 1.6699
P -2.8970 0.9162 2.3229
O -3.5478 1.1347 3.6435
O -1.3222 1.2001 2.3286
O -3.4189 1.9290 1.2056
H 2.5525 -0.0810 -2.2622
H 2.9914 2.3396 -1.9554
H 3.8753 1.4092 -0.7330
H 2.5693 0.5494 2.0883
H 4.6611 3.5345 1.9488
H 0.0872 1.2263 -0.9037
H 0.6962 2.5893 -2.5100
H 0.1552 -0.7934 -3.1638
H -1.6075 0.4746 -2.9036
H 1.0111 -3.4379 -1.5294
H -1.6594 -2.6989 -1.6608
H -1.2915 -4.4025 -0.2040
H -1.2974 -2.3269 1.3678
H -3.4939 -2.8347 1.2600
H -3.2498 -0.7157 -0.3503
H -1.7020 -0.0245 0.2168
H -1.1239 1.9643 2.9171
H -4.3547 2.1561 1.3551
*
