! XTB2 opt numfreq
* XYZ 0 1
C -4.6132 0.6868 -0.0564
C -3.4292 0.2256 -0.8678
O -3.4643 -0.8405 -1.4962
C -2.1582 1.1147 -0.8899
O -2.5573 2.4752 -0.8396
O -1.4965 0.9393 -2.1371
C -1.2262 0.6533 0.2810
O -1.8589 0.9934 1.5489
C 0.0335 1.5282 0.2298
O -0.0544 2.7484 0.0665
O 1.2433 0.9930 0.4960
C 1.5033 -0.4245 0.6262
C 2.0582 -0.9431 -0.7100
O 3.3437 -0.3960 -1.0060
P 4.5676 -0.7871 -0.0588
O 4.5264 -2.1511 0.5379
O 5.8640 -0.5172 -0.9448
O 4.6476 0.4118 0.9878
C 0.2800 -1.1727 1.1523
O -0.0032 -0.7372 2.4946
C -0.9419 -0.8712 0.2890
O -0.7628 -1.4877 -0.9811
H -4.3335 0.8252 0.9888
H -5.0075 1.6177 -0.4710
H -5.4003 -0.0718 -0.1035
H -1.8352 2.9678 -0.3958
H -2.1903 1.0183 -2.8160
H -1.2840 0.6254 2.2577
H 2.2788 -0.4897 1.3954
H 1.4211 -0.6350 -1.5432
H 2.1330 -2.0353 -0.7150
H 6.1356 -1.3255 -1.4177
H 4.8064 1.2586 0.5317
H 0.4766 -2.2507 1.1806
H 0.7257 -1.0580 3.0624
H -1.7957 -1.3745 0.7634
H -1.6322 -1.5139 -1.4399
*
