! XTB2 opt numfreq
* XYZ 0 1
N -14.4826 0.7161 -1.2887
C -13.6385 0.7119 -0.1858
N -14.1968 0.6143 1.0420
C -13.3770 0.5941 2.1129
N -12.0312 0.6504 2.1404
C -11.5306 0.7458 0.9016
C -12.2387 0.7807 -0.2884
N -11.3790 0.8376 -1.3662
C -10.1771 0.8987 -0.8343
N -10.2156 0.7977 0.5297
C -9.0846 0.6470 1.4170
O -8.0877 1.6340 1.0657
C -6.7781 1.0469 1.2898
C -6.0075 1.0356 -0.0299
O -5.7476 2.3750 -0.4308
P -4.7348 2.5694 -1.6694
O -4.8054 1.4535 -2.6508
O -5.2089 4.0025 -2.1971
O -3.3369 2.8374 -0.9689
P -1.9741 2.7451 -1.7829
O -1.8892 3.5519 -3.0305
O -0.8904 3.2411 -0.7110
O -1.6513 1.1840 -1.9180
C -1.5971 0.3793 -0.7472
C -0.5493 -0.7054 -0.9570
O 0.7638 -0.1319 -1.0941
C 1.7040 -1.1645 -0.7348
N 2.7613 -0.6508 0.1537
C 2.5013 0.2748 1.1549
C 3.4239 0.6808 2.0378
C 4.8305 0.1405 2.0087
C 5.0830 -0.8341 0.8641
C 6.4911 -1.4005 0.6785
N 6.9082 -2.0041 1.9500
O 6.4063 -2.4974 -0.2121
C 7.5705 -0.2964 0.2668
O 7.9585 0.4234 1.4643
C 6.9474 0.5936 -0.8185
O 6.8453 0.2924 -2.0019
O 6.5343 1.7945 -0.3758
C 8.8827 -0.8950 -0.3252
O 8.6098 -1.8442 -1.3897
C 9.9555 0.0959 -0.8826
O 10.9886 -0.7258 -1.4934
C 10.5253 1.0866 0.1743
O 9.5771 2.1368 0.4106
C 11.8441 1.7612 -0.2363
O 12.9206 0.8475 -0.1760
P 13.8601 0.6404 -1.4526
O 14.8483 -0.4711 -1.3731
O 12.8493 0.5509 -2.6855
O 14.5173 2.0789 -1.6717
C 4.0561 -1.1555 0.0471
C 0.9110 -2.3115 -0.0634
O 0.6771 -3.4223 -0.9623
C -0.4268 -1.6514 0.2254
O -1.4935 -2.5871 0.3069
C -7.0161 -0.3645 1.8329
O -7.0888 -0.3179 3.2631
C -8.3869 -0.7012 1.2614
O -8.9984 -1.7650 1.9511
P -9.6619 -2.9920 1.1791
O -9.9105 -4.2310 1.9641
O -8.6456 -3.3183 -0.0158
O -10.9038 -2.4397 0.3535
H -15.3904 0.3227 -1.0744
H -14.0359 0.4250 -2.1511
H -13.8656 0.5236 3.0811
H -9.2531 0.9984 -1.3931
H -9.4171 0.8358 2.4452
H -6.2629 1.6831 2.0172
H -6.5951 0.5530 -0.8175
H -5.0553 0.5088 0.0948
H -5.3939 4.6193 -1.4765
H -0.0506 3.4476 -1.1598
H -1.3379 0.9891 0.1222
H -2.5868 -0.0584 -0.5869
H -0.7776 -1.2498 -1.8822
H 2.1486 -1.5151 -1.6748
H 1.4907 0.6723 1.1757
H 3.1767 1.4142 2.7983
H 5.0188 -0.3585 2.9661
H 5.5080 0.9960 1.9370
H 6.1584 -2.6535 2.1963
H 7.6854 -2.6350 1.7539
H 7.2703 -2.6210 -0.6450
H 7.6150 -0.1274 2.2026
H 6.1620 2.2618 -1.1524
H 9.3825 -1.4889 0.4535
H 8.2122 -1.3371 -2.1379
H 9.5166 0.6667 -1.7112
H 10.5621 -1.5934 -1.6728
H 10.7031 0.5498 1.1160
H 8.8974 1.7782 1.0251
H 11.7508 2.2298 -1.2214
H 12.0699 2.5749 0.4621
H 12.2188 -0.1836 -2.5122
H 15.2813 2.0014 -2.2696
H 4.1928 -1.8430 -0.7830
H 1.3816 -2.7245 0.8370
H 1.5429 -3.8351 -1.1391
H -0.3753 -1.0967 1.1680
H -1.2312 -3.3379 -0.2682
H -6.2487 -1.0960 1.5648
H -6.1902 -0.2005 3.6207
H -8.2699 -0.9482 0.1997
H -8.5396 -4.2876 -0.0647
H -10.6788 -1.9702 -0.4691
*
