! XTB2 opt numfreq
* XYZ 0 1
O -1.3224 0.5315 -3.5511
C -1.4291 0.2060 -2.3616
C -2.6383 0.6277 -1.5479
C -3.6387 -0.5096 -1.3367
O -4.4081 -0.6515 -2.5408
C -4.6284 -0.2411 -0.1806
O -5.2565 1.0224 -0.4494
C -3.9363 -0.2431 1.1915
O -4.8566 -0.5665 2.2308
P -5.7708 0.6012 2.8149
O -6.6166 1.3241 1.8235
O -4.8067 1.4983 3.7068
O -6.6462 -0.1090 3.9421
C -0.2956 -0.6435 -1.7077
O 0.6837 -0.9067 -2.7171
O -0.7932 -1.9237 -1.3378
C 0.3453 0.0631 -0.4764
O -0.5967 -0.1404 0.6258
C 0.5526 1.5600 -0.7351
O 1.1101 2.0599 -1.6953
O 0.0992 2.3482 0.2589
C 1.7158 -0.4911 0.0120
O 1.4869 -1.7923 0.6065
C 2.8723 -0.5898 -1.0064
O 2.8298 -1.8822 -1.6410
C 4.2654 -0.4371 -0.3558
O 5.2739 -0.5980 -1.3776
C 4.5662 -1.4250 0.7873
O 5.9200 -1.4173 1.2278
P 6.7056 -0.0270 1.3466
O 5.9125 1.1510 1.8004
O 7.4227 0.1069 -0.0699
O 7.9347 -0.4045 2.2943
H -3.1111 1.4530 -2.0961
H -2.2912 1.0539 -0.6066
H -3.1471 -1.4700 -1.1682
H -5.0091 0.1207 -2.5689
H -5.4285 -0.9910 -0.2057
H -5.9292 1.1958 0.2463
H -3.4688 0.7223 1.4121
H -3.1643 -1.0176 1.2246
H -4.5673 1.0248 4.5227
H -7.5543 -0.2707 3.6188
H 0.2155 -0.7434 -3.5709
H -0.5449 -2.0666 -0.4042
H -0.0721 -0.3308 1.4317
H 0.2877 3.2693 -0.0335
H 2.0376 0.1549 0.8413
H 1.8211 -2.4485 -0.0466
H 2.8015 0.1684 -1.7925
H 2.1196 -1.8143 -2.3230
H 4.3555 0.5915 0.0028
H 5.0261 -1.4300 -1.8379
H 4.3676 -2.4464 0.4596
H 3.9329 -1.2197 1.6509
H 6.7731 0.0136 -0.8074
H 8.4936 0.3720 2.4700
*
