! XTB2 opt numfreq
* XYZ 0 1
O 0.2146 2.3360 1.0893
C 0.6725 1.6360 0.2017
O 1.0582 2.1807 -0.9715
C 0.8873 0.1108 0.2426
O 1.6464 -0.3357 -0.8857
C 1.7073 -0.2206 1.5191
C 3.1548 0.3137 1.6050
O 3.1613 1.7393 1.5516
C 4.1161 -0.3016 0.5612
O 5.3357 -0.6833 1.2340
C 4.4995 0.6427 -0.5803
O 5.0541 -0.1446 -1.6345
P 4.5756 0.2054 -3.1200
O 3.1284 0.4923 -3.3319
O 5.5041 1.4218 -3.5706
O 5.1818 -0.9694 -4.0074
C -0.5206 -0.5921 0.2423
O -1.1836 -0.3972 1.5075
C -0.3120 -2.0997 0.0214
O -0.1734 -2.6797 -1.0436
O -0.3265 -2.7939 1.1844
C -1.4735 -0.0839 -0.8820
O -0.7968 0.0155 -2.1540
C -2.7804 -0.8848 -1.1344
O -3.5130 -0.1687 -2.1549
C -3.6978 -1.1187 0.0801
O -4.6837 -2.1080 -0.2738
C -4.4187 0.1429 0.5546
O -5.1647 -0.1942 1.7235
P -6.0374 0.9752 2.3751
O -6.9854 1.6949 1.4867
O -4.9747 1.9578 3.0432
O -6.6782 0.3080 3.6757
H 0.9034 3.1419 -0.8618
H 1.4471 0.2774 -1.6340
H 1.1673 0.1643 2.3932
H 1.7705 -1.3076 1.6367
H 3.5283 0.0489 2.6019
H 2.7198 2.0671 2.3573
H 3.7125 -1.2456 0.1800
H 5.9095 -1.0720 0.5461
H 3.6433 1.2138 -0.9448
H 5.2744 1.3490 -0.2637
H 5.0511 1.9352 -4.2668
H 6.1419 -1.0500 -3.8697
H -0.8751 -1.1164 2.0984
H -0.2055 -3.7283 0.9030
H -1.7752 0.9431 -0.6420
H -0.4733 -0.8799 -2.3951
H -2.5462 -1.8504 -1.5952
H -2.8564 0.0712 -2.8381
H -3.1522 -1.5759 0.9070
H -5.3961 -2.0325 0.3883
H -5.1210 0.5008 -0.2050
H -3.7106 0.9373 0.8026
H -5.3531 2.8549 3.0937
H -5.9821 -0.0433 4.2544
*
