! XTB2 opt numfreq
* XYZ 0 1
O 2.9423 -0.4876 3.2180
C 2.8462 -1.1103 2.1615
C 2.4745 -0.4704 0.8262
O 3.0580 -1.2975 -0.2026
C 3.1035 0.9255 0.7443
O 4.5223 0.7912 0.8703
P 5.3721 2.1463 0.8053
O 4.8812 3.3011 1.6026
O 5.5138 2.4304 -0.7567
O 6.8433 1.6636 1.1845
C 0.9115 -0.5071 0.7386
O 0.4901 -1.8406 1.0086
O 0.2900 0.3377 1.7117
C 0.3713 0.0017 -0.6372
O 0.6387 1.4228 -0.7804
C -1.1582 -0.1228 -0.8768
O -1.3988 0.3622 -2.2261
C -1.7521 -1.5366 -0.7338
O -0.8124 -2.4858 -1.2860
C -3.1135 -1.7413 -1.4365
O -2.9209 -1.6979 -2.8594
C -4.1929 -0.7446 -1.0147
O -4.3161 -0.7267 0.3960
P -5.2254 0.4307 1.0212
O -6.6245 0.5387 0.5305
O -5.1012 0.1687 2.5888
O -4.3479 1.7525 0.8482
H 2.9487 -2.2098 2.1500
H 4.0059 -1.0548 -0.2467
H 2.9307 1.3766 -0.2356
H 2.7297 1.5912 1.5285
H 5.9949 3.2613 -0.9173
H 6.9271 1.5161 2.1449
H 0.3621 -2.2993 0.1479
H 0.6279 0.0527 2.5833
H 0.8985 -0.4965 -1.4591
H 0.2839 1.8322 0.0381
H -1.7018 0.5680 -0.2225
H -0.8400 1.1655 -2.3017
H -1.8636 -1.7764 0.3292
H -1.0878 -2.5979 -2.2227
H -3.4561 -2.7579 -1.2078
H -2.4755 -0.8383 -3.0403
H -3.9675 0.2593 -1.3902
H -5.1524 -1.0356 -1.4564
H -5.6611 -0.5792 2.8663
H -4.7982 2.5189 1.2443
*
