! XTB2 opt numfreq
* XYZ 0 1
C -3.4221 2.2997 0.8091
C -2.7557 1.2251 -0.0568
O -2.7238 1.7049 -1.4203
C -3.6966 0.0103 -0.0727
O -4.4967 -0.2437 -0.9616
O -3.6230 -0.7763 1.0192
C -1.3183 0.8336 0.4224
O -1.3593 0.3416 1.7846
C -0.4547 2.1111 0.4574
O -0.1147 2.7357 1.4529
O -0.0933 2.5794 -0.7545
C -0.6689 -0.2682 -0.4721
O -0.6271 0.0519 -1.8761
C 0.7725 -0.6542 -0.0436
O 1.6846 0.3485 -0.5380
C 1.1669 -2.0545 -0.5867
O 0.2543 -3.0339 -0.0727
C 2.6013 -2.4537 -0.2036
O 3.5408 -1.7011 -0.9459
P 4.6760 -0.9189 -0.1385
O 5.6595 -1.7774 0.5783
O 5.3552 0.0318 -1.2251
O 3.8884 0.1241 0.7714
H -3.4747 2.0043 1.8621
H -4.4463 2.4932 0.4683
H -2.8943 3.2568 0.7369
H -3.6511 1.7255 -1.7391
H -4.2961 -1.4773 0.8566
H -2.0870 -0.3086 1.8603
H 0.4573 3.3626 -0.5452
H -1.2964 -1.1607 -0.3798
H -1.2718 0.7743 -2.0474
H 0.8479 -0.6734 1.0494
H 1.3527 0.5441 -1.4453
H 1.0850 -2.0482 -1.6807
H 0.4863 -3.8853 -0.4871
H 2.7677 -3.5116 -0.4352
H 2.7550 -2.3479 0.8771
H 6.2791 0.2174 -0.9616
H 3.1410 0.5192 0.2612
*
