! XTB2 opt numfreq
* XYZ 0 1
O -2.7241 0.6009 -2.8695
C -3.1979 -0.3220 -2.2056
C -2.6183 -0.7918 -0.8786
O -2.9841 -2.1789 -0.7626
C -3.2897 0.0240 0.2342
O -4.7100 -0.0174 0.1188
P -5.5425 0.5102 1.3792
O -5.1736 1.8547 1.8983
O -5.4401 -0.6626 2.4514
O -7.0565 0.3935 0.8954
C -1.0668 -0.6135 -0.8921
O -0.5161 -1.4887 -1.8761
O -0.6607 0.7008 -1.2263
C -0.4886 -1.0571 0.4865
O -0.4867 -2.2388 0.8442
C 0.1306 0.0021 1.3702
C 1.6538 -0.1186 1.4268
O 2.1353 0.8041 2.4125
C 2.3652 0.1324 0.0806
O 1.9742 -0.8408 -0.9033
C 3.8920 0.0862 0.2299
O 4.4577 0.2631 -1.0679
P 5.9959 0.6913 -1.1596
O 6.5979 0.6841 -2.5208
O 6.0592 2.1342 -0.4826
O 6.7785 -0.2255 -0.1180
H -4.1354 -0.8136 -2.5199
H -2.2631 -2.6958 -1.1797
H -3.0191 -0.3841 1.2138
H -2.9812 1.0742 0.1925
H -5.9083 -0.4356 3.2740
H -7.3085 1.1452 0.3304
H 0.4416 -1.5239 -1.6585
H -1.1312 0.9225 -2.0603
H -0.1769 1.0084 1.0706
H -0.2899 -0.1253 2.3762
H 1.9113 -1.1261 1.7757
H 1.8079 1.6941 2.1928
H 2.0851 1.1161 -0.3156
H 2.6587 -0.7702 -1.6041
H 4.2463 0.8688 0.9070
H 4.2124 -0.8918 0.6026
H 6.0297 2.8313 -1.1638
H 7.7361 -0.2202 -0.2985
*
