! XTB2 opt numfreq
* XYZ 0 1
O -3.9309 1.5928 1.3205
C -2.8859 0.9373 1.2692
C -2.4725 0.0978 0.0529
O -2.9453 0.7612 -1.1295
C -3.2187 -1.2465 0.2097
O -4.6170 -1.0303 0.0018
P -5.6618 -1.3470 1.1708
O -7.0967 -1.1035 0.8633
O -5.3420 -2.8556 1.5824
O -5.1141 -0.5350 2.4287
C -0.9173 -0.0302 0.0226
O -0.4778 -0.5596 1.2816
C -0.2439 1.3471 -0.2257
C 1.2174 1.5351 0.2281
O 1.6254 2.8608 -0.1375
C 2.2332 0.5150 -0.3136
O 1.9574 -0.7896 0.2215
C 3.6739 0.8877 0.0588
O 4.5238 -0.1438 -0.4321
P 6.0996 0.1159 -0.3632
O 6.6428 0.5923 0.9373
O 6.7610 -1.2386 -0.8777
O 6.3975 1.1221 -1.5635
C -0.5451 -0.9768 -1.1450
O -0.2928 -0.6690 -2.2984
O -0.4750 -2.2734 -0.7685
H -2.2420 0.8647 2.1626
H -3.9237 0.7465 -1.0724
H -3.0258 -1.7097 1.1833
H -2.9310 -1.9535 -0.5713
H -6.0555 -3.2079 2.1442
H -5.2390 0.4313 2.2921
H 0.4150 -0.9443 1.1126
H -0.3322 1.6276 -1.2843
H -0.8109 2.1276 0.2999
H 1.2358 1.4957 1.3244
H 1.3623 3.0211 -1.0626
H 2.1592 0.4446 -1.4050
H 2.7487 -1.3239 -0.0046
H 3.7925 0.9339 1.1463
H 3.9673 1.8451 -0.3827
H 7.7162 -1.2607 -0.6890
H 6.4649 2.0423 -1.2499
H -0.1972 -2.7468 -1.5815
*
