! XTB2 opt numfreq
* XYZ 0 1
O 0.0811 1.3945 3.1541
C 0.1097 1.1953 1.9383
C 0.6548 -0.0989 1.3419
O 0.8092 -1.0045 2.4747
C 2.0361 0.2066 0.7568
O 2.5810 -0.9520 0.1462
P 3.7671 -0.7353 -0.9013
O 5.0015 -0.1141 -0.3480
O 3.0828 0.0594 -2.1004
O 4.0116 -2.1773 -1.5332
C -0.3172 -0.8356 0.3872
O -1.5451 -1.1245 1.1083
C -0.6496 -0.2695 -1.0195
O 0.4784 -0.3383 -1.9091
C -1.2440 1.1437 -1.0837
O -2.2122 1.3805 -0.0848
P -3.7206 0.9186 -0.3651
O -4.3365 1.4745 -1.6010
O -3.6608 -0.6704 -0.2945
O -4.5087 1.2832 0.9697
H -0.1848 1.9908 1.2403
H 1.0566 -0.4494 3.2452
H 2.7277 0.5180 1.5482
H 1.9718 1.0221 0.0280
H 2.1913 -0.3161 -2.2644
H 4.9170 -2.4776 -1.3290
H 0.1190 -1.8287 0.2064
H -1.2294 -1.4999 1.9636
H -1.4016 -0.9496 -1.4406
H 0.0936 -0.3375 -2.8117
H -1.6678 1.3264 -2.0790
H -0.4475 1.8886 -0.9751
H -3.0984 -0.9623 0.4629
H -5.4661 1.3394 0.7958
*
