! XTB2 opt numfreq
* XYZ 0 1
C -1.1366 0.8893 1.2233
C -1.3622 0.4634 -0.2272
O -1.2455 1.6673 -1.0378
C -2.8086 -0.0399 -0.3667
O -3.6597 0.4752 -1.0777
O -3.1184 -1.0750 0.4336
C -0.3508 -0.5585 -0.8201
O -0.4810 -0.5203 -2.2593
C -0.6202 -1.9783 -0.3079
O -0.9652 -2.9300 -1.0039
C 1.1253 -0.2379 -0.5256
O 1.4438 -0.3866 0.8490
P 2.8496 0.1731 1.3699
O 3.1420 -0.0478 2.8119
O 2.8826 1.7100 0.9519
O 3.9401 -0.4815 0.4100
H -1.9612 1.5244 1.5702
H -0.2315 1.4966 1.3279
H -1.0764 0.0323 1.9011
H -2.1251 2.0990 -1.0313
H -4.0437 -1.3071 0.1970
H -0.7014 0.4071 -2.4858
H -0.4916 -2.1186 0.7801
H 1.7704 -0.9135 -1.1009
H 1.3594 0.7785 -0.8626
H 3.5765 2.1893 1.4397
H 4.2892 -1.3105 0.7871
*
