! XTB2 opt numfreq
* XYZ 0 1
C -2.1093 1.4791 -0.5073
C -2.3552 0.2800 0.3670
O -3.4031 0.1780 1.0127
C -1.2785 -0.8325 0.4340
O -1.0027 -1.3382 -0.8594
O -1.8050 -1.9660 1.1460
C -0.0023 -0.4159 1.2172
O 0.8093 -1.6029 1.4115
C -0.4210 0.0585 2.6033
O -0.4528 1.2403 2.9368
C 0.8967 0.6389 0.5601
O 1.0362 0.3985 -0.8353
P 2.5182 0.3190 -1.4359
O 3.4701 1.3898 -1.0412
O 2.2552 0.2315 -3.0064
O 2.9923 -1.1634 -1.1047
H -1.6186 2.2674 0.0678
H -1.5087 1.2109 -1.3797
H -3.0715 1.8533 -0.8749
H -0.0388 -1.2781 -1.0057
H -2.7650 -1.9483 0.9588
H 0.1779 -2.3551 1.4582
H -0.7540 -0.7301 3.3000
H 1.8831 0.6327 1.0376
H 0.4953 1.6495 0.6712
H 2.1367 1.1128 -3.4033
H 3.9157 -1.3094 -1.3760
*
