! XTB2 opt numfreq
* XYZ 1 1
N 10.3430 -2.9892 0.1997
C 10.5446 -1.7157 -0.2454
O 11.6590 -1.2220 -0.3230
C 9.3608 -0.9332 -0.6487
C 9.4797 0.0230 -1.6544
C 8.3721 0.7846 -2.0108
C 7.1689 0.5977 -1.3400
N 7.0754 -0.3113 -0.3388
C 5.8083 -0.5014 0.4048
O 4.6956 0.1412 -0.2235
C 3.7456 0.3089 0.8500
C 2.5785 1.1898 0.4149
O 1.9939 0.7572 -0.8085
P 1.4357 -0.7413 -0.9601
O 2.4882 -1.8019 -0.8860
O 0.7187 -0.7005 -2.3836
O 0.2633 -0.8767 0.0898
P -1.1611 -0.1942 0.0152
O -2.0347 -0.5900 -1.1245
O -0.8633 1.3778 0.0570
O -1.8322 -0.4733 1.4465
C -3.0747 0.1535 1.7143
C -4.1662 -0.8658 2.0635
O -5.3577 -0.1290 2.4127
C -6.2403 -0.0992 1.2629
N -6.4777 1.2972 0.9205
C -6.4350 2.3560 1.7954
N -6.6414 3.5084 1.1913
C -6.8683 3.1778 -0.1278
C -7.1493 3.9543 -1.2644
N -7.2544 5.3428 -1.2374
N -7.3458 3.3224 -2.4448
C -7.2527 1.9756 -2.4764
N -6.9885 1.1354 -1.4569
C -6.8028 1.8060 -0.3094
C -5.5828 -0.9399 0.1562
O -6.5632 -1.7076 -0.5273
P -6.1223 -2.5302 -1.8173
O -5.1549 -1.8914 -2.7468
O -5.5953 -3.9052 -1.1974
O -7.5134 -2.9967 -2.4374
C -4.5786 -1.7896 0.9191
O -5.2119 -2.9571 1.4529
C 4.5965 0.8849 1.9759
O 4.0563 0.6768 3.2701
C 5.9082 0.1046 1.8152
O 6.0468 -0.9335 2.7868
C 8.1446 -1.0787 0.0065
H 9.5369 -3.5504 -0.0452
H 11.1959 -3.5210 0.3547
H 10.4337 0.1723 -2.1628
H 8.4507 1.5221 -2.8062
H 6.2817 1.1705 -1.6029
H 5.6167 -1.5837 0.4216
H 3.3626 -0.6775 1.1388
H 2.9266 2.2139 0.2361
H 1.8078 1.2321 1.1908
H 0.5998 -1.5812 -2.7889
H -1.0961 1.7954 -0.7961
H -2.9278 0.8286 2.5650
H -3.3854 0.7937 0.8810
H -3.8589 -1.4492 2.9389
H -7.2109 -0.5045 1.5707
H -6.2381 2.2284 2.8544
H -7.8309 5.6705 -2.0013
H -7.4811 5.6928 -0.3138
H -7.4035 1.5103 -3.4467
H -5.0426 -0.3049 -0.5549
H -5.2280 -4.4666 -1.9093
H -8.1237 -3.3255 -1.7543
H -3.7376 -2.1253 0.3094
H -5.4754 -3.5131 0.6896
H 4.7893 1.9550 1.8167
H 3.5191 1.4565 3.5219
H 6.7677 0.7746 1.9273
H 5.5314 -0.6362 3.5713
H 8.0047 -1.7792 0.8269
*
