! XTB2 opt numfreq
* XYZ 0 1
N 5.9451 3.5337 1.1662
C 5.1581 2.5337 0.7023
O 3.9517 2.7115 0.5469
C 5.8197 1.2289 0.4411
C 5.1025 0.2885 -0.2008
N 5.5624 -1.0011 -0.4826
C 4.6937 -2.0240 -1.1226
O 3.4225 -1.4695 -1.5195
C 2.3656 -2.2052 -0.8610
C 1.8932 -1.4144 0.3689
O 1.1658 -0.2740 -0.0773
P 0.7618 0.8814 0.9548
O 0.0500 2.0530 0.3446
O 2.1382 1.2757 1.6651
O -0.0406 0.1650 2.1158
P -1.3346 -0.7340 1.9475
O -1.1390 -2.1946 2.2016
O -2.3811 -0.0215 2.9304
O -1.9407 -0.3740 0.5119
C -2.0077 -1.3931 -0.4763
C -2.4686 -0.8193 -1.8277
O -3.9184 -0.8748 -1.9324
C -4.4364 0.4776 -1.8727
N -5.6476 0.4980 -1.0800
C -6.8740 0.9177 -1.5375
N -7.8239 0.7398 -0.6451
C -7.1848 0.1739 0.4388
C -7.6536 -0.2707 1.6873
N -8.9912 -0.2341 2.0588
N -6.7590 -0.7474 2.5800
C -5.4592 -0.7975 2.2214
N -4.8967 -0.4120 1.0562
C -5.8231 0.0521 0.2037
C -3.2964 1.3593 -1.3888
O -3.4160 2.7084 -1.7902
P -2.7396 3.7994 -0.8296
O -3.0203 3.6529 0.6271
O -3.2272 5.1954 -1.4285
O -1.1915 3.7901 -1.1963
C -2.1043 0.6497 -2.0277
O -1.9854 0.9443 -3.4279
C 2.9659 -3.5541 -0.4908
O 2.9525 -4.4344 -1.6264
C 4.3987 -3.1954 -0.1503
O 5.2530 -4.3379 -0.2861
C 6.8666 -1.3173 -0.1052
C 7.6798 -0.4626 0.5359
C 7.2244 0.9305 0.8942
H 6.9482 3.4680 1.2724
H 5.5176 4.4393 1.3082
H 4.0961 0.4970 -0.5459
H 5.1890 -2.3856 -2.0341
H 1.5505 -2.3026 -1.5893
H 2.7362 -1.0860 0.9824
H 1.2287 -2.0299 0.9838
H 2.6619 1.9473 1.1546
H -2.6091 0.8818 2.6381
H -1.0032 -1.8127 -0.5952
H -2.6895 -2.1787 -0.1338
H -2.0869 -1.4566 -2.6320
H -4.7251 0.7557 -2.8949
H -7.0154 1.3332 -2.5298
H -9.5418 0.4239 1.5203
H -9.1167 -0.2503 3.0638
H -4.7794 -1.1921 2.9692
H -3.2402 1.3167 -0.2989
H -2.9778 5.9320 -0.8438
H -0.6677 3.1953 -0.6026
H -1.1476 0.9257 -1.5835
H -2.7494 0.5953 -3.9144
H 2.4337 -4.0611 0.3186
H 3.3376 -5.2772 -1.3175
H 4.4546 -2.8582 0.8911
H 5.4969 -4.4256 -1.2233
H 7.1948 -2.3220 -0.3583
H 8.6860 -0.7595 0.8135
H 7.2881 1.0451 1.9811
H 7.9200 1.6443 0.4378
*
