! XTB2 opt numfreq
* XYZ 0 1
O -0.3179 0.2816 -2.0387
C -1.2998 0.7822 -1.4908
C -1.4480 0.9897 0.0122
O -1.7025 2.3693 0.2616
C -0.2221 0.5116 0.7884
O -0.0448 -0.8796 0.5933
P 1.4362 -1.4076 0.2954
O 2.3919 -1.2921 1.4313
O 1.2291 -2.9016 -0.2201
O 1.8726 -0.6503 -1.0367
H -2.1708 1.1021 -2.0892
H -2.3308 0.4175 0.3179
H -0.8822 2.8683 0.0936
H 0.6684 1.0760 0.4869
H -0.3611 0.6966 1.8590
H 2.0598 -3.4029 -0.1291
H 1.1220 -0.5606 -1.6704
*
