! XTB2 opt numfreq
* XYZ 0 1
O -3.6485 1.4324 0.9209
C -2.5701 1.5817 0.3644
O -1.5395 2.1808 0.9889
C -2.2317 1.1233 -1.0453
O -3.2911 1.5398 -1.9249
C -2.0890 -0.4126 -1.0810
O -1.8848 -0.8578 -2.4334
C -0.9729 -1.0020 -0.1828
O -1.3228 -0.9250 1.1993
C 0.4102 -0.3556 -0.4077
O 0.7058 -0.3048 -1.8127
C 1.5159 -1.1392 0.3108
O 2.7690 -0.5054 0.0609
P 3.3337 0.4614 1.2034
O 2.4026 1.4989 1.7212
O 4.7072 0.9977 0.6019
O 3.8644 -0.5171 2.3457
H -1.8702 2.3996 1.8848
H -1.3305 1.6269 -1.4065
H -4.0963 1.0663 -1.6481
H -3.0462 -0.8513 -0.7716
H -0.9829 -0.5625 -2.6871
H -0.8853 -2.0675 -0.4346
H -2.1420 -1.4387 1.3293
H 0.4203 0.6755 -0.0417
H 1.6495 -0.0528 -1.8747
H 1.3297 -1.2142 1.3873
H 1.5915 -2.1526 -0.0967
H 5.2869 0.2623 0.3355
H 3.9170 -0.0375 3.1946
*
