! XTB2 opt numfreq
* XYZ 0 1
O 4.0999 -1.1928 -2.4792
P 3.4589 -0.7688 -1.2038
O 3.3282 0.8131 -1.0608
O 4.3382 -1.1604 0.0696
O 2.0135 -1.3714 -0.8969
C 1.2952 -0.9101 0.2421
C 0.2489 0.1389 -0.1665
O -0.6134 -0.3642 -1.2124
C -1.8580 -0.8829 -0.7679
O -1.6404 -1.9682 0.1156
C -2.7098 0.2182 -0.0954
O -3.5409 0.9025 -1.0534
C -1.8312 1.2760 0.5873
O -2.5188 1.8632 1.7047
C -0.5188 0.6615 1.0621
O 0.2523 1.6441 1.7597
H 4.0979 1.2600 -1.4554
H 4.7686 -2.0240 -0.0681
H 0.8165 -1.7894 0.6819
H 1.9816 -0.5035 0.9927
H 0.7861 0.9736 -0.6311
H -2.3912 -1.2644 -1.6459
H -1.3761 -2.7113 -0.4554
H -3.3979 -0.2340 0.6279
H -2.9690 1.1662 -1.7989
H -1.6203 2.1116 -0.0924
H -3.3875 2.1525 1.3636
H -0.7233 -0.1389 1.7831
H -0.3891 2.1028 2.3406
*
