! XTB2 opt numfreq
* XYZ 0 1
O 0.5556 2.3136 2.6050
C 0.0515 1.5300 1.8037
O 0.7045 0.4210 1.3944
C 0.0051 -0.7421 0.8831
C 1.0014 -1.5464 0.0414
O 1.4118 -0.7774 -1.0846
P 2.6848 -1.3191 -1.8833
O 2.6396 -2.7330 -2.3439
O 2.8369 -0.2998 -3.1025
O 3.9426 -0.9128 -0.9952
C -1.2589 -0.4046 0.0952
O -2.0296 -1.5856 -0.1389
C -2.0894 0.5838 0.8998
O -3.2810 0.8915 0.1555
C -1.2785 1.8423 1.1358
O -2.0775 2.7445 1.9105
H -0.2558 -1.3595 1.7524
H 0.5559 -2.4822 -0.3109
H 1.8851 -1.7809 0.6455
H 2.5066 -0.7175 -3.9206
H 4.0467 0.0547 -0.9622
H -1.0228 0.0283 -0.8843
H -2.9023 -1.2674 -0.4515
H -2.4267 0.1381 1.8437
H -3.6886 1.6493 0.6245
H -1.0660 2.3520 0.1888
H -1.4511 3.3791 2.3166
*
