! XTB2 opt numfreq
* XYZ 0 1
O 4.2290 -0.2458 1.6430
C 3.9436 0.3144 0.6027
O 4.1541 1.6184 0.3912
C 3.3156 -0.3886 -0.6016
O 3.7805 -0.2297 -1.7248
C 2.1004 -1.2256 -0.3106
C 0.8635 -0.3320 -0.3078
O 0.9662 0.5408 0.8229
C -0.4457 -1.1559 -0.2425
O -0.4465 -2.1689 -1.2480
C -1.6875 -0.2708 -0.4281
O -1.7488 0.7330 0.5728
P -3.1893 1.2974 0.9841
O -3.1959 2.4007 1.9820
O -3.8860 1.7097 -0.3892
O -4.0361 0.0298 1.4504
H 4.5457 1.9419 1.2268
H 2.0470 -1.9977 -1.0855
H 2.2368 -1.7335 0.6504
H 0.8630 0.2898 -1.2117
H 0.1047 0.9953 0.9227
H -0.5007 -1.6400 0.7410
H -1.1952 -2.7657 -1.0676
H -2.5848 -0.8999 -0.4069
H -1.6653 0.2134 -1.4110
H -3.7808 2.6653 -0.5581
H -4.7874 0.3044 2.0078
*
