! XTB2 opt numfreq
* XYZ 0 1
O -2.8806 1.6267 -0.7041
C -2.5115 0.6684 -0.0331
C -1.7085 -0.4697 -0.5971
C -0.4036 -0.6452 0.1736
O 0.1130 -1.9491 -0.0961
C 0.6419 0.4092 -0.1949
C 1.9262 0.2466 0.6099
O 2.8252 1.2854 0.2433
H -2.7851 0.5854 1.0329
H -1.5211 -0.3005 -1.6632
H -2.3220 -1.3748 -0.5218
H -0.5991 -0.6007 1.2515
H 0.3163 -2.0044 -1.0476
H 0.2436 1.4191 -0.0384
H 0.8921 0.3405 -1.2615
H 2.4070 -0.7144 0.4028
H 1.7271 0.3233 1.6834
H 3.6388 1.1544 0.7605
*
