! XTB2 opt numfreq
* XYZ 0 1
C 2.4714 -0.8241 0.3410
C 1.1176 -0.5752 -0.3111
O 1.3086 -0.3307 -1.7016
C 0.4187 0.6354 0.3098
C -0.9091 1.0102 -0.3657
O -1.4722 2.1346 0.3204
C -1.9581 -0.0955 -0.4014
C -2.2453 -0.6108 0.9815
O -1.9665 -1.7519 1.3406
H 3.1411 0.0306 0.1948
H 2.9632 -1.6893 -0.1165
H 2.3673 -1.0110 1.4141
H 0.4994 -1.4724 -0.2062
H 1.7579 -1.1102 -2.0745
H 1.0788 1.5112 0.2411
H 0.2642 0.4738 1.3841
H -0.7205 1.3354 -1.3956
H -0.8532 2.8785 0.2046
H -1.6388 -0.9289 -1.0349
H -2.9050 0.2858 -0.8000
H -2.7195 0.1047 1.6753
*
