! XTB2 opt numfreq
* XYZ 0 1
C -1.4951 -0.1537 0.8011
C -0.7205 -0.4385 -0.4810
O -1.5595 -0.1227 -1.5969
C 0.5679 0.3725 -0.5908
C 1.6463 -0.1465 0.3163
O 1.6146 -1.1408 1.0195
O 2.7447 0.6345 0.2862
H -0.9220 -0.4242 1.6922
H -2.4343 -0.7176 0.8093
H -1.7666 0.9056 0.8694
H -0.5051 -1.5109 -0.5424
H -1.8588 0.7980 -1.5025
H 0.3733 1.4253 -0.3559
H 0.9426 0.3271 -1.6203
H 3.3724 0.1919 0.8958
*
