! XTB2 opt numfreq
* XYZ 0 1
C 1.4489 1.0486 0.1441
C 0.4575 -0.1132 0.1245
O 0.8527 -1.0534 1.1041
O 0.5521 -0.7376 -1.1384
C -0.9494 0.3949 0.4336
C -1.9881 -0.6899 0.3274
O -1.9177 -1.6257 -0.4664
H 2.4645 0.6950 -0.0696
H 1.4753 1.5336 1.1257
H 1.2018 1.7945 -0.6189
H 1.7520 -1.3223 0.8474
H -0.2176 -1.3423 -1.2020
H -0.9928 0.7772 1.4601
H -1.2540 1.1925 -0.2526
H -2.8852 -0.5519 0.9547
*
