! XTB2 opt numfreq
* XYZ 0 1
O -1.9078 -1.7640 1.6014
C -0.8519 -1.7923 0.9748
C -0.6564 -1.1447 -0.3805
C -1.8637 -0.2863 -0.7564
O -3.0041 -1.1158 -0.9723
C 0.6753 -0.3759 -0.3921
O 0.9960 0.0086 -1.7300
C 0.6790 0.8862 0.4778
C 2.0582 1.5366 0.5300
O 2.0260 2.6421 1.4245
H 0.0092 -2.3647 1.3619
H -0.5908 -1.9743 -1.0972
H -1.6806 0.2559 -1.6891
H -2.1187 0.4443 0.0186
H -3.2649 -1.4562 -0.0915
H 1.4793 -1.0403 -0.0510
H 1.0402 -0.7919 -2.2836
H 0.3533 0.6558 1.4990
H -0.0267 1.6290 0.0857
H 2.8063 0.8298 0.9021
H 2.3808 1.8935 -0.4531
H 1.4619 3.3246 1.0209
*
