! XTB2 opt numfreq
* XYZ 0 1
C -1.7076 1.9102 -1.6430
C -1.4352 0.4773 -1.1949
O -2.6410 -0.0739 -0.6625
C -0.3053 0.3811 -0.1543
C -0.7018 1.1229 1.1000
O 0.0646 1.8778 1.6946
C 0.0262 -1.0772 0.2096
O 0.4403 -1.7595 -0.9791
C 1.1217 -1.2437 1.2745
C 2.4736 -0.6537 0.8871
O 3.4048 -0.8937 1.9374
H -2.0936 2.5223 -0.8210
H -0.8042 2.3807 -2.0424
H -2.4772 1.9221 -2.4228
H -1.1677 -0.1132 -2.0789
H -3.2819 -0.1233 -1.3955
H 0.5802 0.8658 -0.5831
H -1.7043 0.9049 1.5073
H -0.8774 -1.5816 0.5741
H 0.5756 -2.6967 -0.7490
H 1.2696 -2.3150 1.4668
H 0.7966 -0.8218 2.2330
H 2.4240 0.4255 0.7185
H 2.8640 -1.1267 -0.0189
H 3.1561 -0.3106 2.6766
*
