! XTB2 opt numfreq
* XYZ 0 1
O 1.1205 1.8203 0.6621
C 1.5461 1.1335 -0.2501
O 2.3580 1.6626 -1.1858
C 1.2726 -0.3220 -0.5021
C 0.3916 -0.9507 0.5808
O 0.7392 -2.3392 0.6881
C -1.1084 -0.8960 0.2710
C -1.6983 0.5056 0.2707
O -3.0998 0.4144 0.0435
H 2.4650 2.6011 -0.9232
H 2.2430 -0.8326 -0.5305
H 0.8100 -0.4320 -1.4892
H 0.5761 -0.5039 1.5646
H 1.6126 -2.3961 1.1129
H -1.3145 -1.3863 -0.6901
H -1.6498 -1.5117 1.0025
H -1.5359 0.9976 1.2346
H -1.2709 1.1183 -0.5275
H -3.4570 1.3171 0.1030
*
