! XTB2 opt numfreq
* XYZ 0 1
C -3.0628 0.5536 0.0596
C -1.8277 -0.1406 0.6207
O -2.2368 -1.2413 1.4346
C -0.9204 -0.6693 -0.4944
C 0.4302 -1.1786 0.0394
O 0.6752 -2.4394 -0.6196
C 1.6477 -0.2831 -0.2688
C 2.8579 -1.0120 0.2971
O 3.4507 -0.6702 1.3188
C 1.6590 1.1504 0.2941
C 0.8611 2.1588 -0.5224
O 1.1758 1.1774 1.6335
H -3.6479 -0.1270 -0.5687
H -2.7895 1.4296 -0.5363
H -3.7212 0.8758 0.8734
H -1.2901 0.5592 1.2652
H -2.9773 -1.6902 0.9916
H -0.7630 0.0896 -1.2670
H -1.4471 -1.4931 -0.9959
H 0.3838 -1.3980 1.1129
H 0.0173 -3.0677 -0.2664
H 1.8244 -0.2455 -1.3521
H 3.1747 -1.9128 -0.2579
H 2.6901 1.5277 0.3163
H 1.0907 3.1742 -0.1781
H 1.1054 2.0996 -1.5869
H -0.2164 2.0447 -0.3884
H 1.8561 0.7283 2.1773
*
