! XTB2 opt numfreq
* XYZ 0 1
C -2.8612 -0.5826 -0.4612
C -1.6934 0.3963 -0.4873
O -2.0389 1.5570 0.2642
C -0.4301 -0.2360 0.1078
C 0.7595 0.7315 0.1751
O 1.1398 1.1475 -1.1365
C 1.9813 0.1652 0.8967
C 2.5457 -1.0727 0.2579
O 1.9904 -2.1538 0.1464
O 3.8138 -0.9147 -0.1697
H -3.7569 -0.1222 -0.8921
H -3.1157 -0.8620 0.5671
H -2.6319 -1.4907 -1.0269
H -1.5086 0.7094 -1.5206
H -2.8956 1.8793 -0.0671
H -0.1770 -1.1046 -0.5098
H -0.6452 -0.5909 1.1235
H 0.4641 1.6347 0.7232
H 0.5064 1.8357 -1.4081
H 1.7466 -0.0756 1.9396
H 2.7699 0.9281 0.9160
H 4.0369 -1.7790 -0.5723
*
