! XTB2 opt numfreq
* XYZ 0 1
C 2.0862 0.2238 -0.1732
C 1.0516 -0.4478 0.7237
O 1.5287 -0.3968 2.0760
C -0.3701 0.1470 0.6956
C -0.3287 1.6006 1.1320
O -1.1781 2.4319 0.8099
C -1.1284 -0.0119 -0.6386
C -1.2909 -1.4816 -1.0313
O -2.4377 0.5287 -0.5707
O -0.4743 0.6528 -1.6989
H 1.8633 0.0833 -1.2331
H 2.1662 1.2955 0.0346
H 3.0803 -0.1988 0.0132
H 1.0046 -1.5118 0.4696
H 2.3837 -0.8640 2.1068
H -0.9514 -0.3429 1.4905
H 0.4549 1.8738 1.8593
H -1.9360 -1.5747 -1.9136
H -1.7650 -2.0566 -0.2288
H -0.3347 -1.9444 -1.2938
H -2.3413 1.4218 -0.1745
H -1.0828 0.5720 -2.4548
*
