! XTB2 opt numfreq
* XYZ 0 1
C -1.7884 0.4243 -0.7939
C -0.6171 -0.0325 0.0754
O -0.7223 -1.4356 0.2215
O -0.7519 0.5440 1.3589
C 0.7026 0.3897 -0.5682
C 1.8975 0.0893 0.2880
O 2.8381 0.8381 0.4976
O 1.9236 -1.1765 0.7571
H -1.8163 1.5155 -0.8838
H -2.7430 0.1112 -0.3547
H -1.7359 -0.0177 -1.7947
H 0.1467 -1.7382 0.5528
H -1.6564 0.3336 1.6482
H 0.8539 -0.1100 -1.5316
H 0.7016 1.4741 -0.7331
H 2.7674 -1.2092 1.2604
*
