! XTB2 opt numfreq
* XYZ 0 1
O -1.9032 -0.5130 0.7159
C -1.1306 0.6590 0.5037
C 0.0382 0.3787 -0.4276
C 0.9945 -0.6602 0.1435
O 2.0831 -0.8480 -0.7545
H -2.2564 -0.7947 -0.1462
H -1.7828 1.4297 0.0807
H -0.7763 1.0143 1.4765
H 0.5818 1.3088 -0.6310
H -0.3309 0.0185 -1.3959
H 1.3946 -0.3477 1.1135
H 0.4978 -1.6267 0.2716
H 2.5902 -0.0187 -0.7781
*
