! XTB2 opt numfreq
* XYZ 0 1
C -1.6729 -0.8123 -0.6474
C -0.9781 0.0090 0.4334
O -0.6054 -0.8542 1.5031
C 0.2237 0.7976 -0.1085
C 0.8441 1.5753 1.0246
O 0.8857 2.8041 1.0403
C 1.3283 0.0060 -0.8085
O 1.8813 -1.0083 0.0138
H -1.0395 -1.6368 -0.9910
H -2.5839 -1.2714 -0.2475
H -1.9489 -0.1918 -1.5052
H -1.7016 0.7216 0.8489
H -1.3836 -1.3792 1.7578
H -0.1548 1.5333 -0.8311
H 1.2740 0.9817 1.8507
H 0.9417 -0.4646 -1.7183
H 2.1446 0.6758 -1.1025
H 2.5452 -1.4859 -0.5128
*
