! XTB2 opt numfreq
* XYZ 0 1
O 2.1561 -0.8360 0.7553
C 1.2852 -0.4570 -0.0111
O 1.6070 0.3078 -1.0728
C -0.1640 -0.8451 0.0313
C -1.0840 0.3585 -0.0600
O -1.0980 1.0508 1.1833
H 2.5724 0.4459 -0.9685
H -0.3387 -1.3842 0.9692
H -0.3441 -1.5338 -0.8009
H -2.1068 0.0241 -0.2620
H -0.7871 1.0584 -0.8469
H -1.6980 1.8104 1.0832
*
